  Page 1                                    Sat Mar 12 13:22:30 2022

  ******************************************************************
  *                           E P A N E T                          *
  *                   Hydraulic and Water Quality                  *
  *                   Analysis for Pipe Networks                   *
  *                         Version 2.2                            *
  ******************************************************************
  
  Analysis begun Sat Mar 12 13:22:30 2022

  Analysis ended Sat Mar 12 13:22:30 2022
